Version 4
SHEET 1 1192 680
WIRE 240 48 144 48
WIRE 384 48 320 48
WIRE 560 48 384 48
WIRE 384 96 384 48
WIRE 144 112 144 48
WIRE 560 112 560 48
WIRE 144 240 144 192
WIRE 384 240 384 176
WIRE 560 240 560 176
FLAG 144 240 0
FLAG 384 240 0
FLAG 144 48 n1
FLAG 384 48 n2
FLAG 560 240 0
SYMBOL voltage 144 96 R0
SYMATTR InstName V1VAR
SYMATTR Value 5
SYMBOL res 336 32 R90
WINDOW 0 0 56 VBottom 2
WINDOW 3 32 56 VTop 2
SYMATTR InstName R1
SYMATTR Value {parR1}
SYMBOL ind 368 80 R0
SYMATTR InstName L1
SYMATTR Value {parL1}
SYMBOL cap 544 112 R0
SYMATTR InstName C1
SYMATTR Value {parC1}
TEXT 904 24 Left 2 !.param parR1=120\n.param parL1=0.3\n.param parC1=100e-4
TEXT 912 144 Left 2 !.ic V(n1)=0
TEXT 920 216 Left 2 !.tran 3 uic
TEXT 936 264 Left 2 !.param icl1=3.717e-7
